     144
 i =       34, E =     -4785.1283867759
 Au         0.0000000000        0.0000000000        0.0000000000
 Au         0.0000000000        2.9504300000        0.0000000000
 Au         0.0000000000        5.9008600000        0.0000000000
 Au         8.8512900000        0.0000000000        0.0000000000
 Au         8.8512900000        2.9504300000        0.0000000000
 Au         8.8512900000        5.9008600000        0.0000000000
 Au         0.0000000000        8.8512900000        0.0000000000
 Au         0.0000000000       11.8017200000        0.0000000000
 Au         0.0000000000       14.7521500000        0.0000000000
 Au         8.8512900000        8.8512900000        0.0000000000
 Au         8.8512900000       11.8017200000        0.0000000000
 Au         8.8512900000       14.7521500000        0.0000000000
 Au         2.4586900000        1.4752100000        0.6954200000
 Au         2.4586900000        4.4256500000        0.6954200000
 Au         2.4586900000        7.3760700000        0.6954200000
 Au        11.3099800000        1.4752100000        0.6954200000
 Au        11.3099800000        4.4256500000        0.6954200000
 Au        11.3099800000        7.3760700000        0.6954200000
 Au         2.4586900000       10.3265000000        0.6954200000
 Au         2.4586900000       13.2769400000        0.6954200000
 Au         2.4586900000       16.2273600000        0.6954200000
 Au        11.3099800000       10.3265000000        0.6954200000
 Au        11.3099800000       13.2769400000        0.6954200000
 Au        11.3099800000       16.2273600000        0.6954200000
 Au         4.9173800000        0.0000000000        1.3908500000
 Au         4.9173800000        2.9504300000        1.3908500000
 Au         4.9173800000        5.9008600000        1.3908500000
 Au        13.7686700000        0.0000000000        1.3908500000
 Au        13.7686700000        2.9504300000        1.3908500000
 Au        13.7686700000        5.9008600000        1.3908500000
 Au         4.9173800000        8.8512900000        1.3908500000
 Au         4.9173800000       11.8017200000        1.3908500000
 Au         4.9173800000       14.7521500000        1.3908500000
 Au        13.7686700000        8.8512900000        1.3908500000
 Au        13.7686700000       11.8017200000        1.3908500000
 Au        13.7686700000       14.7521500000        1.3908500000
 Au         7.3760700000        1.4752100000        2.0862700000
 Au         7.3760700000        4.4256500000        2.0862700000
 Au         7.3760700000        7.3760700000        2.0862700000
 Au        16.2273600000        1.4752100000        2.0862700000
 Au        16.2273600000        4.4256500000        2.0862700000
 Au        16.2273600000        7.3760700000        2.0862700000
 Au         7.3760700000       10.3265000000        2.0862700000
 Au         7.3760700000       13.2769400000        2.0862700000
 Au         7.3760700000       16.2273600000        2.0862700000
 Au        16.2273600000       10.3265000000        2.0862700000
 Au        16.2273600000       13.2769400000        2.0862700000
 Au        16.2273600000       16.2273600000        2.0862700000
 Au         0.9834800000        0.0000000000        2.7816900000
 Au         0.9834800000        2.9504300000        2.7816900000
 Au         0.9834800000        5.9008600000        2.7816900000
 Au         9.8347700000        0.0000000000        2.7816900000
 Au         9.8347700000        2.9504300000        2.7816900000
 Au         9.8347700000        5.9008600000        2.7816900000
 Au         0.9834800000        8.8512900000        2.7816900000
 Au         0.9834800000       11.8017200000        2.7816900000
 Au         0.9834800000       14.7521500000        2.7816900000
 Au         9.8347700000        8.8512900000        2.7816900000
 Au         9.8347700000       11.8017200000        2.7816900000
 Au         9.8347700000       14.7521500000        2.7816900000
 Au         3.4421700000        1.4752100000        3.4771100000
 Au         3.4421700000        4.4256500000        3.4771100000
 Au         3.4421700000        7.3760700000        3.4771100000
 Au        12.2934600000        1.4752100000        3.4771100000
 Au        12.2934600000        4.4256500000        3.4771100000
 Au        12.2934600000        7.3760700000        3.4771100000
 Au         3.4421700000       10.3265000000        3.4771100000
 Au         3.4421700000       13.2769400000        3.4771100000
 Au         3.4421700000       16.2273600000        3.4771100000
 Au        12.2934600000       10.3265000000        3.4771100000
 Au        12.2934600000       13.2769400000        3.4771100000
 Au        12.2934600000       16.2273600000        3.4771100000
 Au         5.9355785373        0.0008532215        4.2021002163
 Au         5.9359781718        2.9514357761        4.2026033207
 Au         5.9356653221        5.9014509208        4.2023621412
 Au        14.7879748405        0.0011882256        4.2014673210
 Au        14.7870737169        2.9513201380        4.2020405303
 Au        14.7872738457        5.9019843210        4.2021247953
 Au         5.9354068174        8.8525281664        4.2029744258
 Au         5.9358859630       11.8027308689        4.2020620029
 Au         5.9359013120       14.7527052599        4.2027621439
 Au        14.7875710036        8.8521521400        4.2011392271
 Au        14.7869535715       11.8026160562        4.2015978426
 Au        14.7874175135       14.7527053391        4.2017019248
 Au         8.4117391435        1.4758559461        4.8360062493
 Au         8.4120829737        4.4265159265        4.8366228089
 Au         8.4112504352        7.3770625647        4.8362847081
 Au        17.2636440494        1.4764550988        4.8360194991
 Au        17.2629269274        4.4268673935        4.8357836438
 Au        17.2642105648        7.3772257958        4.8355576426
 Au         8.4118877754       10.3271758923        4.8360601426
 Au         8.4116850230       13.2775589003        4.8364947943
 Au         8.4115481810       16.2281285092        4.8360982536
 Au        17.2638970888       10.3277419532        4.8357358451
 Au        17.2630005041       13.2776323127        4.8364877829
 Au        17.2630496710       16.2283427308        4.8354495214
 Au         2.0800769236        0.0017710348        5.6828872505
 Au         2.0799255336        2.9513151920        5.6825456815
 Au         2.0802903643        5.9024529844        5.6832663513
 Au        10.9314229341        0.0013995120        5.6826656158
 Au        10.9304464169        2.9525296459        5.6825164982
 Au        10.9301232071        5.9026437387        5.6829926338
 Au         2.0804924994        8.8531535178        5.6825044446
 Au         2.0802674662       11.8043346281        5.6827305865
 Au         2.0796351129       14.7542794079        5.6827084128
 Au        10.9297705621        8.8532406115        5.6836680918
 Au        10.9306036870       11.8035732740        5.6830873982
 Au        10.9305925885       14.7536129884        5.6827776607
 Au         4.4904228175        1.4773547315        6.3528175607
 Au         4.4889697457        4.4273884335        6.3530725885
 Au         4.4899718389        7.3781516323        6.3525150952
 Au        13.3411576034        1.4775834656        6.3506978661
 Au        13.3407068456        4.4284335076        6.3515360500
 Au        13.3400956538        7.3785942355        6.3514307399
 Au         4.4891714968       10.3293355680        6.3530479750
 Au         4.4899940771       13.2792954277        6.3528646227
 Au         4.4897784681       16.2296323031        6.3522409525
 Au        13.3405534848       10.3281998905        6.3507495819
 Au        13.3411266737       13.2788086369        6.3518115936
 Au        13.3419336077       16.2290757720        6.3501575272
 Au         6.8396520605        0.0023136392        7.0929047986
 Au         6.8391073152        2.9531834926        7.0938836688
 Au         6.8386131489        5.9028185874        7.0933062874
 Au        15.6899153677        0.0030907968        7.0934083555
 Au        15.6903342498        2.9537383158        7.0925636176
 Au        15.6901614287        5.9036242058        7.0920691564
 Au         6.8379608620        8.8540898683        7.0942448735
 Au         6.8385905975       11.8038210806        7.0943353842
 Au         6.8388407148       14.7543824880        7.0941322192
 Au        15.6903682339        8.8538194377        7.0903273934
 Au        15.6905804504       11.8036259914        7.0915907312
 Au        15.6907565317       14.7544836267        7.0925845700
 Au         0.4057469526        1.4779769988        7.5857881039
 Au         0.4065398827        4.4282461497        7.5850859331
 Au         0.4057567705        7.3788387341        7.5852856322
 Au         9.2580043136        1.4778927941        7.5852404454
 Au         9.2572572278        4.4284264705        7.5872233165
 Au         9.2562862554        7.3785897178        7.5863193034
 Au         0.4066155719       10.3288020836        7.5853535388
 Au         0.4064739882       13.2793557639        7.5860558567
 Au         0.4057391725       16.2303300392        7.5851618251
 Au         9.2565121847       10.3286773893        7.5865415988
 Au         9.2571735712       13.2788871767        7.5860883209
 Au         9.2576738620       16.2296201536        7.5857795597